LAMMPS (31 Mar 2017)

units metal

atom_style atomic

boundary p p p
atom_modify map array

variable Tdump equal 1000

variable nx equal 16
variable ny equal 16
variable nz equal 16

variable x index 16
variable y index 16
variable z index 16

variable a equal 3.52

lattice fcc $a
lattice fcc 3.52
Lattice spacing in x,y,z = 3.52 3.52 3.52
region box block 0 $x 0 $y 0 $z
region box block 0 16 0 $y 0 $z
region box block 0 16 0 16 0 $z
region box block 0 16 0 16 0 16

create_box 1 box
Created orthogonal box = (0 0 0) to (56.32 56.32 56.32)
create_atoms 1 box
Created 16384 atoms

pair_style eam/alloy
pair_coeff * * Ni.eam Ni

thermo_style custom step time temp press pe ke etotal
thermo 1000

timestep 1.0e-4

velocity all create 600.0 101 mom yes rot yes

#fix integrate all nve
fix friction all eph 1111 7 4 1.0 3.5e-6 0.01248 300.0 1 1 1 NULL 0 Te_out Ni.beta Ni
run 0
  update every 1 steps, delay 10 steps, check yes
Step Time Temp Press PotEng KinEng TotEng
0            0          600    7596.9699     -72908.8    1270.6014   -71638.198
Loop time of 3.34001e-06 on 2 procs for 0 steps with 16384 atoms

run 10000
Step Time Temp Press PotEng KinEng TotEng
0            0          600    7596.9699     -72908.8    1270.6014   -71638.198
Averages over the last 6 of 11 rows, steps 5000 to 10000:
Temp Press PotEng KinEng TotEng
299.412 12061.2 -72271.5 634.054 -71637.5
Loop time of 1216.39 on 2 procs for 10000 steps with 16384 atoms
