LAMMPS (31 Mar 2017)

# initialisation
units metal
# mass -> grams/mole
# distance -> Angstroms (A)
# time -> picoseconds (ps)
# energy -> eV
# velocity -> A/ps
# force -> eV/A
# torque -> eV
# temperature -> K
# pressure -> bars
# dynamic viscosity -> Poise
# charge -> e
# dipole -> e*A
# electric field -> V/A
# density -> gram/cm^3

atom_style atomic

boundary p p p
atom_modify map array

######################
### create the box ###
######################

## box size ##
variable n equal 8
variable n_2 equal floor(8/2)

## lattice constant ##
variable a equal 3.52

variable x index $n
variable x index 8
variable y index $n
variable y index 8
variable z index $n
variable z index 8

## lattice type ##
lattice fcc $a
lattice fcc 3.52
Lattice spacing in x,y,z = 3.52 3.52 3.52
region box block 0 $x 0 $y 0 $z
region box block 0 8 0 $y 0 $z
region box block 0 8 0 8 0 $z
region box block 0 8 0 8 0 8

## create box for two atom types ##
create_box 2 box
Created orthogonal box = (0 0 0) to (28.16 28.16 28.16)
## fill box with atoms ##
create_atoms 1 box
Created 2048 atoms

## potential in use ##
pair_style eam/alloy
pair_coeff * * Ni.eam Ni Ni

## create a vacancy in the center of the box ##
# we need a vacancy somewhere (center of the box)
region pka sphere 4 4 4 0.1 side in
delete_atoms region pka
Deleted 1 atoms, new total = 2047
region pka delete

## put atom type 2 (Ni) at vacancy position ##
# we create an interstitial somewhere else
create_atoms 2 single 4 4 4
Created 1 atoms
group pka type 2
1 atoms in group pka

########################
### Set PKA velocity ###
########################

## SUB_VEL is substituted by sed ##
# we give it some velocity
variable vvx equal 0.835115
variable vvy equal 0.543981
variable vvz equal 0.081652

variable vel equal 573.39111597

variable vx equal 573.39111597*0.835115
variable vy equal 573.39111597*0.543981
variable vz equal 573.39111597*0.081652

## set PKA energy to the selected atom ##
velocity pka set 478.847521813287 311.913872656477 46.8185314011824 units box

#############################
### Find largest velocity ###
#############################

variable vv atom sqrt(vx*vx+vy*vy+vz*vz)
compute maxv all reduce max v_vv

#####################################
### Initial intergration timestep ###
#####################################

## initial timestep; atom should not move more than 10 uA in one timestep ##
variable maxA equal 1.0e-3
variable tau equal 1.0/573.39111597
variable dt equal 0.001*0.00174401027875765
timestep 1.74401027875765e-06

## print stuff into stdout every 1000 steps (atoms moves about 1A in that time) ##
thermo_style custom step time temp press pe ke etotal c_maxv
thermo 1000

compute keatom all ke/atom

################################
### Integrator and eph model ###
################################

## use velocity verlet integration
#fix integrate all nve

## eph model ##
## model is applied only to the PKA atom (a small error is created because of this) ##
fix friction all eph 1111 7 4 1.0 3.5e-6 0.1248 0.0 8 8 8 NULL 0 T_out Ni.beta Ni Ni
run 0
  update every 1 steps, delay 10 steps, check yes
Step Time Temp Press PotEng KinEng TotEng c_maxv
0            0    3780.4192    47845.773      -9113.6     1000.282    -8113.318    573.39096
Loop time of 1.90735e-06 on 1 procs for 0 steps with 2048 atoms

#################################
### Dump coordinates          ###
### velocities forces and     ###
### kinetic energy            ###
#################################

## create trajactory file where atom moves at the most 0.1 A
#dump myDump all custom 1000 strucs.dump type x y z vx vy vz fx fy fz c_keatom
#dump_modify myDump sort id

#################################
### these are for output file ###
#################################
variable N equal count(all)
print "Number of atoms: $N"
Number of atoms: 2048

variable xe equal x[$N]
variable xe equal x[2048]
variable ye equal y[$N]
variable ye equal y[2048]
variable ze equal z[$N]
variable ze equal z[2048]

variable Ep equal pe
variable Ek equal ke
variable Ee equal f_friction[1]
variable Te equal f_friction[2]

variable rho equal f_friction[$N][1]
variable rho equal f_friction[2048][1]
variable beta equal f_friction[$N][2]
variable beta equal f_friction[2048][2]

# print in nice format
variable fxe format xe "%.12e"
variable fye format ye "%.12e"
variable fze format ze "%.12e"

variable fEp format Ep "%.12e"
variable fEk format Ek "%.12e"
variable fEe format Ee "%.12e"
variable fTe format Te "%.12e"

variable frho format rho "%.12e"
variable fbeta format beta "%.12e"

#################################################################
### print output every time atom has moved at the most 0.01 A ###
#################################################################

########################################
### loop until 1 ps has been reached ###
########################################

variable T_total equal 0.0
variable T_new equal 0.0

#########################################
### calculate kinetic energy per-atom ###
#########################################

label time_loop

variable dtold equal 1.74401027875765e-06
variable velo equal c_maxv
variable tau equal 1.0/573.390955618286
variable dt equal 0.001*0.00174401076647905
variable dtratio equal 1.74401027875765e-06/1.74401076647905e-06

Timestep: 1.74401076647905e-06
timestep 1.74401076647905e-06

## run until atom has traveled 1 A ##
run 10000
Step Time Temp Press PotEng KinEng TotEng c_maxv
0            0    3780.4192    47845.773      -9113.6     1000.282    -8113.318    573.39096
Averages over the last 6 of 11 rows, steps 5000 to 10000:
Temp Press PotEng KinEng TotEng c_maxv
3234.2 53711.6 -9023.43 855.755 -8167.67 397.756
Loop time of 268.504 on 1 procs for 10000 steps with 2048 atoms

variable T_new equal 10000*1.74401076647905e-06+0
variable T_total equal 0.0174401076647905
Total time: 0.0174401076647905

## check if 1 ps has passed ##
jump SELF time_loop

variable dtold equal 1.74401076647905e-06
variable velo equal c_maxv
variable tau equal 1.0/336.494976699884
variable dt equal 0.001*0.00297181256554652
variable dtratio equal 1.74401076647905e-06/2.97181256554652e-06

variable dt equal 1.74401076647905e-06*1.2

Timestep: 2.09281291977486e-06
timestep 2.09281291977486e-06

## run until atom has traveled 1 A ##
run 10000
Step Time Temp Press PotEng KinEng TotEng c_maxv
10000  0.017440108    3271.3729     50316.43   -9054.6805    865.59059   -8189.0899    336.49498
Averages over the last 6 of 11 rows, steps 15000 to 20000:
Temp Press PotEng KinEng TotEng c_maxv
2656.1 61077 -8941.6 702.792 -8238.81 275.532
Loop time of 270.995 on 1 procs for 10000 steps with 2048 atoms

variable T_new equal 10000*2.09281291977486e-06+0.0174401076647905
variable T_total equal 0.0383682368625391
Total time: 0.0383682368625391

## check if 1 ps has passed ##
jump SELF time_loop

variable dtold equal 2.09281291977486e-06
variable velo equal c_maxv
variable tau equal 1.0/252.379498404209
variable dt equal 0.001*0.00396228697783688
variable dtratio equal 2.09281291977486e-06/3.96228697783688e-06

variable dt equal 2.09281291977486e-06*1.2

Timestep: 2.51137550372983e-06
timestep 2.51137550372983e-06

## run until atom has traveled 1 A ##
run 10000
Step Time Temp Press PotEng KinEng TotEng c_maxv
20000  0.038368237    2535.6753     64882.63   -8917.8357    670.92831   -8246.9074     252.3795
Averages over the last 6 of 11 rows, steps 25000 to 30000:
Temp Press PotEng KinEng TotEng c_maxv
2182.07 75669 -8845.82 577.365 -8268.45 194.387
Loop time of 272.682 on 1 procs for 10000 steps with 2048 atoms

variable T_new equal 10000*2.51137550372983e-06+0.0383682368625391
variable T_total equal 0.0634819918998374
Total time: 0.0634819918998374

## check if 1 ps has passed ##
jump SELF time_loop

variable dtold equal 2.51137550372983e-06
variable velo equal c_maxv
variable tau equal 1.0/189.073551963276
variable dt equal 0.001*0.00528894702414133
variable dtratio equal 2.51137550372983e-06/5.28894702414133e-06

variable dt equal 2.51137550372983e-06*1.2

Timestep: 3.0136506044758e-06
timestep 3.0136506044758e-06

## run until atom has traveled 1 A ##
run 10000
Step Time Temp Press PotEng KinEng TotEng c_maxv
30000  0.063481992     2144.304    78730.937     -8840.09    567.37323   -8272.7168    189.07355
Averages over the last 6 of 11 rows, steps 35000 to 40000:
Temp Press PotEng KinEng TotEng c_maxv
1761.2 91088.3 -8744.24 466.005 -8278.23 91.1965
Loop time of 272.112 on 1 procs for 10000 steps with 2048 atoms

variable T_new equal 10000*3.0136506044758e-06+0.0634819918998374
variable T_total equal 0.0936184979445954
Total time: 0.0936184979445954

## check if 1 ps has passed ##
jump SELF time_loop

variable dtold equal 3.0136506044758e-06
variable velo equal c_maxv
variable tau equal 1.0/82.4280743763397
variable dt equal 0.001*0.0121317889270872
variable dtratio equal 3.0136506044758e-06/1.21317889270872e-05

variable dt equal 3.0136506044758e-06*1.2

Timestep: 3.61638072537096e-06
timestep 3.61638072537096e-06

## run until atom has traveled 1 A ##
run 10000
Step Time Temp Press PotEng KinEng TotEng c_maxv
40000  0.093618498     1662.953    93690.028   -8719.0619    440.00991    -8279.052    82.428074
Averages over the last 6 of 11 rows, steps 45000 to 50000:
Temp Press PotEng KinEng TotEng c_maxv
1490.64 97746.4 -8675.02 394.417 -8280.61 59.5022
Loop time of 276.017 on 1 procs for 10000 steps with 2048 atoms

variable T_new equal 10000*3.61638072537096e-06+0.0936184979445954
variable T_total equal 0.129782305198305
Total time: 0.129782305198305

## check if 1 ps has passed ##
jump SELF time_loop

variable dtold equal 3.61638072537096e-06
variable velo equal c_maxv
variable tau equal 1.0/55.0454661719391
variable dt equal 0.001*0.0181668004568517
variable dtratio equal 3.61638072537096e-06/1.81668004568517e-05

variable dt equal 3.61638072537096e-06*1.2

Timestep: 4.33965687044515e-06
timestep 4.33965687044515e-06

## run until atom has traveled 1 A ##
run 10000
Step Time Temp Press PotEng KinEng TotEng c_maxv
50000   0.12978231    1431.0577    99241.712   -8658.7879    378.65144   -8280.1365    55.045466
Averages over the last 6 of 11 rows, steps 55000 to 60000:
Temp Press PotEng KinEng TotEng c_maxv
1265.38 102105 -8613.77 334.815 -8278.96 45.7484
Loop time of 281.865 on 1 procs for 10000 steps with 2048 atoms

variable T_new equal 10000*4.33965687044515e-06+0.129782305198305
variable T_total equal 0.173178873902756
Total time: 0.173178873902756

## check if 1 ps has passed ##
jump SELF time_loop

variable dtold equal 4.33965687044515e-06
variable velo equal c_maxv
variable tau equal 1.0/46.9988467672265
variable dt equal 0.001*0.021277117818502
variable dtratio equal 4.33965687044515e-06/2.1277117818502e-05

variable dt equal 4.33965687044515e-06*1.2

Timestep: 5.20758824453418e-06
timestep 5.20758824453418e-06

## run until atom has traveled 1 A ##
run 10000
Step Time Temp Press PotEng KinEng TotEng c_maxv
60000   0.17317887    1258.1425     101993.8   -8611.8274    332.89888   -8278.9285    46.998847
Averages over the last 6 of 11 rows, steps 65000 to 70000:
Temp Press PotEng KinEng TotEng c_maxv
1204.86 102090 -8596.2 318.801 -8277.4 33.9284
Loop time of 287.046 on 1 procs for 10000 steps with 2048 atoms

variable T_new equal 10000*5.20758824453418e-06+0.173178873902756
variable T_total equal 0.225254756348098
Total time: 0.225254756348098

## check if 1 ps has passed ##
jump SELF time_loop

variable dtold equal 5.20758824453418e-06
variable velo equal c_maxv
variable tau equal 1.0/25.3940294535853
variable dt equal 0.001*0.0393793352814598
variable dtratio equal 5.20758824453418e-06/3.93793352814598e-05

variable dt equal 5.20758824453418e-06*1.2

Timestep: 6.24910589344102e-06
timestep 6.24910589344102e-06

## run until atom has traveled 1 A ##
run 10000
Step Time Temp Press PotEng KinEng TotEng c_maxv
70000   0.22525476    1203.1468    101459.59   -8595.1462    318.34725    -8276.799    25.394029
Averages over the last 6 of 11 rows, steps 75000 to 80000:
Temp Press PotEng KinEng TotEng c_maxv
1240.01 96115.7 -8602.36 328.1 -8274.26 28.6792
Loop time of 310.959 on 1 procs for 10000 steps with 2048 atoms

variable T_new equal 10000*6.24910589344102e-06+0.225254756348098
variable T_total equal 0.287745815282508
Total time: 0.287745815282508

## check if 1 ps has passed ##
jump SELF time_loop

variable dtold equal 6.24910589344102e-06
variable velo equal c_maxv
variable tau equal 1.0/27.4499773714862
variable dt equal 0.001*0.0364299025265775
variable dtratio equal 6.24910589344102e-06/3.64299025265775e-05

variable dt equal 6.24910589344102e-06*1.2

Timestep: 7.49892707212922e-06
timestep 7.49892707212922e-06

## run until atom has traveled 1 A ##
run 10000
Step Time Temp Press PotEng KinEng TotEng c_maxv
80000   0.28774582    1249.2844    94497.935    -8603.833    330.55504   -8273.2779    27.449977
Averages over the last 6 of 11 rows, steps 85000 to 90000:
Temp Press PotEng KinEng TotEng c_maxv
1325.24 87385.4 -8622.48 350.653 -8271.82 23.8571
Loop time of 289.724 on 1 procs for 10000 steps with 2048 atoms

variable T_new equal 10000*7.49892707212922e-06+0.287745815282508
variable T_total equal 0.3627350860038
Total time: 0.3627350860038

## check if 1 ps has passed ##
jump SELF time_loop

variable dtold equal 7.49892707212922e-06
variable velo equal c_maxv
variable tau equal 1.0/25.0545910440311
variable dt equal 0.001*0.0399128446456218
variable dtratio equal 7.49892707212922e-06/3.99128446456218e-05

variable dt equal 7.49892707212922e-06*1.2

Timestep: 8.99871248655506e-06
timestep 8.99871248655506e-06

## run until atom has traveled 1 A ##
run 10000
Step Time Temp Press PotEng KinEng TotEng c_maxv
90000   0.36273509    1404.2171    84076.712   -8641.8937    371.54955   -8270.3441    25.054591
Averages over the last 6 of 11 rows, steps 95000 to 100000:
Temp Press PotEng KinEng TotEng c_maxv
1494.05 78021 -8661.53 395.318 -8266.21 21.8795
Loop time of 285.558 on 1 procs for 10000 steps with 2048 atoms

variable T_new equal 10000*8.99871248655506e-06+0.3627350860038
variable T_total equal 0.452722210869351
Total time: 0.452722210869351

## check if 1 ps has passed ##
jump SELF time_loop

variable dtold equal 8.99871248655506e-06
variable velo equal c_maxv
variable tau equal 1.0/22.0348073164665
variable dt equal 0.001*0.0453827431135604
variable dtratio equal 8.99871248655506e-06/4.53827431135604e-05

variable dt equal 8.99871248655506e-06*1.2

Timestep: 1.07984549838661e-05
timestep 1.07984549838661e-05

## run until atom has traveled 1 A ##
run 10000
Step Time Temp Press PotEng KinEng TotEng c_maxv
100000   0.45272221    1493.9145    77054.026   -8660.8238    395.28309   -8265.5407    22.034807
Averages over the last 6 of 11 rows, steps 105000 to 110000:
Temp Press PotEng KinEng TotEng c_maxv
1356.08 76615.3 -8621.43 358.813 -8262.61 25.2226
Loop time of 285.303 on 1 procs for 10000 steps with 2048 atoms

variable T_new equal 10000*1.07984549838661e-05+0.452722210869351
variable T_total equal 0.560706760708012
Total time: 0.560706760708012

## check if 1 ps has passed ##
jump SELF time_loop

variable dtold equal 1.07984549838661e-05
variable velo equal c_maxv
variable tau equal 1.0/24.2228140320924
variable dt equal 0.001*0.0412833950124505
variable dtratio equal 1.07984549838661e-05/4.12833950124505e-05

variable dt equal 1.07984549838661e-05*1.2

Timestep: 1.29581459806393e-05
timestep 1.29581459806393e-05

## run until atom has traveled 1 A ##
run 10000
Step Time Temp Press PotEng KinEng TotEng c_maxv
110000   0.56070676    1369.7617    74741.957   -8625.1862    362.43282   -8262.7533    24.222814
Averages over the last 6 of 11 rows, steps 115000 to 120000:
Temp Press PotEng KinEng TotEng c_maxv
1453.88 73814.7 -8644.26 384.691 -8259.57 22.7775
Loop time of 286.322 on 1 procs for 10000 steps with 2048 atoms

variable T_new equal 10000*1.29581459806393e-05+0.560706760708012
variable T_total equal 0.690288220514405
Total time: 0.690288220514405

## check if 1 ps has passed ##
jump SELF time_loop

variable dtold equal 1.29581459806393e-05
variable velo equal c_maxv
variable tau equal 1.0/24.4686552458515
variable dt equal 0.001*0.040868612923448
variable dtratio equal 1.29581459806393e-05/4.0868612923448e-05

variable dt equal 1.29581459806393e-05*1.2

Timestep: 1.55497751767672e-05
timestep 1.55497751767672e-05

## run until atom has traveled 1 A ##
run 10000
Step Time Temp Press PotEng KinEng TotEng c_maxv
120000   0.69028822    1483.8198     73223.67   -8652.4005    392.61207   -8259.7884    24.468655
Averages over the last 6 of 11 rows, steps 125000 to 130000:
Temp Press PotEng KinEng TotEng c_maxv
1412.98 80811 -8630.26 373.869 -8256.39 20.5813
Loop time of 285.972 on 1 procs for 10000 steps with 2048 atoms

variable T_new equal 10000*1.55497751767672e-05+0.690288220514405
variable T_total equal 0.845785972282077
Total time: 0.845785972282077

## check if 1 ps has passed ##
jump SELF time_loop

variable dtold equal 1.55497751767672e-05
variable velo equal c_maxv
variable tau equal 1.0/18.9997425466725
variable dt equal 0.001*0.0526322921241443
variable dtratio equal 1.55497751767672e-05/5.26322921241443e-05

variable dt equal 1.55497751767672e-05*1.2

Timestep: 1.86597302121206e-05
timestep 1.86597302121206e-05

## run until atom has traveled 1 A ##
run 10000
Step Time Temp Press PotEng KinEng TotEng c_maxv
130000   0.84578597    1369.6773     83631.32   -8617.3614    362.41047   -8254.9509    18.999743
Averages over the last 6 of 11 rows, steps 135000 to 140000:
Temp Press PotEng KinEng TotEng c_maxv
1501.58 77419.8 -8648.39 397.311 -8251.08 21.0707
Loop time of 285.873 on 1 procs for 10000 steps with 2048 atoms

variable T_new equal 10000*1.86597302121206e-05+0.845785972282077
variable T_total equal 1.03238327440328
Total time: 1.03238327440328

## check if 1 ps has passed ##
jump SELF loop_end
run 0
Step Time Temp Press PotEng KinEng TotEng c_maxv
140000    1.0323833    1564.8928    72097.847   -8664.8008    414.06363   -8250.7371    22.133047
Loop time of 1.19209e-06 on 1 procs for 0 steps with 2048 atoms
