LAMMPS (31 Mar 2017)

# initialisation
units metal
# mass -> grams/mole
# distance -> Angstroms (A)
# time -> picoseconds (ps)
# energy -> eV
# velocity -> A/ps
# force -> eV/A
# torque -> eV
# temperature -> K
# pressure -> bars
# dynamic viscosity -> Poise
# charge -> e
# dipole -> e*A
# electric field -> V/A
# density -> gram/cm^3

atom_style atomic

boundary p p p
atom_modify map array

######################
### create the box ###
######################

## box size ##
variable n equal 8
variable n_2 equal floor(8/2)

## lattice constant ##
variable a equal 3.52

variable x index $n
variable x index 8
variable y index $n
variable y index 8
variable z index $n
variable z index 8

## lattice type ##
lattice fcc $a
lattice fcc 3.52
Lattice spacing in x,y,z = 3.52 3.52 3.52
region box block 0 $x 0 $y 0 $z
region box block 0 8 0 $y 0 $z
region box block 0 8 0 8 0 $z
region box block 0 8 0 8 0 8

## create box for two atom types ##
create_box 2 box
Created orthogonal box = (0 0 0) to (28.16 28.16 28.16)
## fill box with atoms ##
create_atoms 1 box
Created 2048 atoms

## potential in use ##
pair_style eam/alloy
pair_coeff * * Ni.eam Ni Ni

## create a vacancy in the center of the box ##
# we need a vacancy somewhere (center of the box)
region pka sphere 4 4 4 0.1 side in
delete_atoms region pka
Deleted 1 atoms, new total = 2047
region pka delete

## put atom type 2 (Ni) at vacancy position ##
# we create an interstitial somewhere else
create_atoms 2 single 4 4 4
Created 1 atoms
group pka type 2
1 atoms in group pka

########################
### Set PKA velocity ###
########################

## SUB_VEL is substituted by sed ##
# we give it some velocity
variable vvx equal 0.835115
variable vvy equal 0.543981
variable vvz equal 0.081652

variable vel equal 573.39111597

variable vx equal 573.39111597*0.835115
variable vy equal 573.39111597*0.543981
variable vz equal 573.39111597*0.081652

## set PKA energy to the selected atom ##
velocity pka set 478.847521813287 311.913872656477 46.8185314011824 units box

#############################
### Find largest velocity ###
#############################

variable vv atom sqrt(vx*vx+vy*vy+vz*vz)
compute maxv all reduce max v_vv

#####################################
### Initial intergration timestep ###
#####################################

## initial timestep; atom should not move more than 10 uA in one timestep ##
variable maxA equal 1.0e-3
variable tau equal 1.0/573.39111597
variable dt equal 0.001*0.00174401027875765
timestep 1.74401027875765e-06

## print stuff into stdout every 1000 steps (atoms moves about 1A in that time) ##
thermo_style custom step time temp press pe ke etotal c_maxv
thermo 1000

compute keatom all ke/atom

################################
### Integrator and eph model ###
################################

## use velocity verlet integration
#fix integrate all nve

## eph model ##
## model is applied only to the PKA atom (a small error is created because of this) ##
fix friction all eph 1111 7 4 1.0 3.5e-6 0.1248 0.0 7 8 9 NULL 0 T_out Ni.beta Ni Ni
run 0
  update every 1 steps, delay 10 steps, check yes
Step Time Temp Press PotEng KinEng TotEng c_maxv
0            0    3780.4192    47845.773      -9113.6     1000.282    -8113.318    573.39096
Loop time of 0.000238372 on 4 procs for 0 steps with 2048 atoms

#################################
### Dump coordinates          ###
### velocities forces and     ###
### kinetic energy            ###
#################################

## create trajactory file where atom moves at the most 0.1 A
#dump myDump all custom 1000 strucs.dump type x y z vx vy vz fx fy fz c_keatom
#dump_modify myDump sort id

#################################
### these are for output file ###
#################################
variable N equal count(all)
print "Number of atoms: $N"
Number of atoms: 2048

variable xe equal x[$N]
variable xe equal x[2048]
variable ye equal y[$N]
variable ye equal y[2048]
variable ze equal z[$N]
variable ze equal z[2048]

variable Ep equal pe
variable Ek equal ke
variable Ee equal f_friction[1]
variable Te equal f_friction[2]

variable rho equal f_friction[$N][1]
variable rho equal f_friction[2048][1]
variable beta equal f_friction[$N][2]
variable beta equal f_friction[2048][2]

# print in nice format
variable fxe format xe "%.12e"
variable fye format ye "%.12e"
variable fze format ze "%.12e"

variable fEp format Ep "%.12e"
variable fEk format Ek "%.12e"
variable fEe format Ee "%.12e"
variable fTe format Te "%.12e"

variable frho format rho "%.12e"
variable fbeta format beta "%.12e"

#################################################################
### print output every time atom has moved at the most 0.01 A ###
#################################################################

########################################
### loop until 1 ps has been reached ###
########################################

variable T_total equal 0.0
variable T_new equal 0.0

#########################################
### calculate kinetic energy per-atom ###
#########################################

label time_loop

variable dtold equal 1.74401027875765e-06
variable velo equal c_maxv
variable tau equal 1.0/573.390955618286
variable dt equal 0.001*0.00174401076647905
variable dtratio equal 1.74401027875765e-06/1.74401076647905e-06

Timestep: 1.74401076647905e-06
timestep 1.74401076647905e-06

## run until atom has traveled 1 A ##
run 10000
Step Time Temp Press PotEng KinEng TotEng c_maxv
0            0    3780.4192    47845.773      -9113.6     1000.282    -8113.318    573.39096
Averages over the last 6 of 11 rows, steps 5000 to 10000:
Temp Press PotEng KinEng TotEng c_maxv
3259.58 54019.4 -9023.52 862.47 -8161.05 399.249
Loop time of 563.558 on 4 procs for 10000 steps with 2048 atoms

variable T_new equal 10000*1.74401076647905e-06+0
variable T_total equal 0.0174401076647905
Total time: 0.0174401076647905

## check if 1 ps has passed ##
jump SELF time_loop

variable dtold equal 1.74401076647905e-06
variable velo equal c_maxv
variable tau equal 1.0/339.203855127003
variable dt equal 0.001*0.00294807970158707
variable dtratio equal 1.74401076647905e-06/2.94807970158707e-06

variable dt equal 1.74401076647905e-06*1.2

Timestep: 2.09281291977486e-06
timestep 2.09281291977486e-06

## run until atom has traveled 1 A ##
run 10000
Step Time Temp Press PotEng KinEng TotEng c_maxv
10000  0.017440108    3295.8339    50571.994   -9055.1166    872.06287   -8183.0537    339.20386
Averages over the last 6 of 11 rows, steps 15000 to 20000:
Temp Press PotEng KinEng TotEng c_maxv
2696.8 62573.6 -8932.81 713.56 -8219.25 269.308
Loop time of 480.472 on 4 procs for 10000 steps with 2048 atoms

variable T_new equal 10000*2.09281291977486e-06+0.0174401076647905
variable T_total equal 0.0383682368625391
Total time: 0.0383682368625391

## check if 1 ps has passed ##
jump SELF time_loop

variable dtold equal 2.09281291977486e-06
variable velo equal c_maxv
variable tau equal 1.0/216.428269299932
variable dt equal 0.001*0.0046204684962581
variable dtratio equal 2.09281291977486e-06/4.6204684962581e-06

variable dt equal 2.09281291977486e-06*1.2

Timestep: 2.51137550372983e-06
timestep 2.51137550372983e-06

## run until atom has traveled 1 A ##
run 10000
Step Time Temp Press PotEng KinEng TotEng c_maxv
20000  0.038368237    2513.1715     66602.37   -8894.8763     664.9739   -8229.9024    216.42827
Averages over the last 6 of 11 rows, steps 25000 to 30000:
Temp Press PotEng KinEng TotEng c_maxv
2261.01 77652.7 -8841.69 598.254 -8243.44 154.516
Loop time of 420.641 on 4 procs for 10000 steps with 2048 atoms

variable T_new equal 10000*2.51137550372983e-06+0.0383682368625391
variable T_total equal 0.0634819918998374
Total time: 0.0634819918998374

## check if 1 ps has passed ##
jump SELF time_loop

variable dtold equal 2.51137550372983e-06
variable velo equal c_maxv
variable tau equal 1.0/150.81008098357
variable dt equal 0.001*0.00663085646183656
variable dtratio equal 2.51137550372983e-06/6.63085646183656e-06

variable dt equal 2.51137550372983e-06*1.2

Timestep: 3.0136506044758e-06
timestep 3.0136506044758e-06

## run until atom has traveled 1 A ##
run 10000
Step Time Temp Press PotEng KinEng TotEng c_maxv
30000  0.063481992    2173.3456    82287.729   -8821.6357    575.05749   -8246.5782    150.81008
Averages over the last 6 of 11 rows, steps 35000 to 40000:
Temp Press PotEng KinEng TotEng c_maxv
1815.86 95003.2 -8731.16 480.467 -8250.7 85.8818
Loop time of 422.461 on 4 procs for 10000 steps with 2048 atoms

variable T_new equal 10000*3.0136506044758e-06+0.0634819918998374
variable T_total equal 0.0936184979445954
Total time: 0.0936184979445954

## check if 1 ps has passed ##
jump SELF time_loop

variable dtold equal 3.0136506044758e-06
variable velo equal c_maxv
variable tau equal 1.0/81.2283634004082
variable dt equal 0.001*0.012310970677454
variable dtratio equal 3.0136506044758e-06/1.2310970677454e-05

variable dt equal 3.0136506044758e-06*1.2

Timestep: 3.61638072537096e-06
timestep 3.61638072537096e-06

## run until atom has traveled 1 A ##
run 10000
Step Time Temp Press PotEng KinEng TotEng c_maxv
40000  0.093618498    1709.8836    98726.684   -8704.3927    452.42754   -8251.9652    81.228363
Averages over the last 6 of 11 rows, steps 45000 to 50000:
Temp Press PotEng KinEng TotEng c_maxv
1501.84 101416 -8651.28 397.38 -8253.9 62.0082
Loop time of 430.755 on 4 procs for 10000 steps with 2048 atoms

variable T_new equal 10000*3.61638072537096e-06+0.0936184979445954
variable T_total equal 0.129782305198305
Total time: 0.129782305198305

## check if 1 ps has passed ##
jump SELF time_loop

variable dtold equal 3.61638072537096e-06
variable velo equal c_maxv
variable tau equal 1.0/57.6471359155702
variable dt equal 0.001*0.0173469155772907
variable dtratio equal 3.61638072537096e-06/1.73469155772907e-05

variable dt equal 3.61638072537096e-06*1.2

Timestep: 4.33965687044515e-06
timestep 4.33965687044515e-06

## run until atom has traveled 1 A ##
run 10000
Step Time Temp Press PotEng KinEng TotEng c_maxv
50000   0.12978231    1457.6686    101229.15   -8640.3468    385.69257   -8254.6543    57.647136
Averages over the last 6 of 11 rows, steps 55000 to 60000:
Temp Press PotEng KinEng TotEng c_maxv
1284.61 104682 -8593.35 339.902 -8253.44 43.7624
Loop time of 446.134 on 4 procs for 10000 steps with 2048 atoms

variable T_new equal 10000*4.33965687044515e-06+0.129782305198305
variable T_total equal 0.173178873902756
Total time: 0.173178873902756

## check if 1 ps has passed ##
jump SELF time_loop

variable dtold equal 4.33965687044515e-06
variable velo equal c_maxv
variable tau equal 1.0/42.3551093177991
variable dt equal 0.001*0.0236099024676526
variable dtratio equal 4.33965687044515e-06/2.36099024676526e-05

variable dt equal 4.33965687044515e-06*1.2

Timestep: 5.20758824453418e-06
timestep 5.20758824453418e-06

## run until atom has traveled 1 A ##
run 10000
Step Time Temp Press PotEng KinEng TotEng c_maxv
60000   0.17317887    1241.2022    106225.18   -8581.2301    328.41654   -8252.8135    42.355109
Averages over the last 6 of 11 rows, steps 65000 to 70000:
Temp Press PotEng KinEng TotEng c_maxv
1221.7 105571 -8574.23 323.257 -8250.97 33.3803
Loop time of 240.838 on 4 procs for 10000 steps with 2048 atoms

variable T_new equal 10000*5.20758824453418e-06+0.173178873902756
variable T_total equal 0.225254756348098
Total time: 0.225254756348098

## check if 1 ps has passed ##
jump SELF time_loop

variable dtold equal 5.20758824453418e-06
variable velo equal c_maxv
variable tau equal 1.0/38.380577238776
variable dt equal 0.001*0.0260548452353577
variable dtratio equal 5.20758824453418e-06/2.60548452353577e-05

variable dt equal 5.20758824453418e-06*1.2

Timestep: 6.24910589344102e-06
timestep 6.24910589344102e-06

## run until atom has traveled 1 A ##
run 10000
Step Time Temp Press PotEng KinEng TotEng c_maxv
70000   0.22525476    1237.8187     103524.7    -8577.441    327.52127   -8249.9197    38.380577
Averages over the last 6 of 11 rows, steps 75000 to 80000:
Temp Press PotEng KinEng TotEng c_maxv
1291.73 100382 -8589.35 341.786 -8247.57 27.4439
Loop time of 230.302 on 4 procs for 10000 steps with 2048 atoms

variable T_new equal 10000*6.24910589344102e-06+0.225254756348098
variable T_total equal 0.287745815282508
Total time: 0.287745815282508

## check if 1 ps has passed ##
jump SELF time_loop

variable dtold equal 6.24910589344102e-06
variable velo equal c_maxv
variable tau equal 1.0/27.6362262659916
variable dt equal 0.001*0.0361843903858384
variable dtratio equal 6.24910589344102e-06/3.61843903858384e-05

variable dt equal 6.24910589344102e-06*1.2

Timestep: 7.49892707212922e-06
timestep 7.49892707212922e-06

## run until atom has traveled 1 A ##
run 10000
Step Time Temp Press PotEng KinEng TotEng c_maxv
80000   0.28774582    1301.0368    99603.457   -8591.2203    344.24852   -8246.9718    27.636226
Averages over the last 6 of 11 rows, steps 85000 to 90000:
Temp Press PotEng KinEng TotEng c_maxv
1351.32 94791.5 -8601.33 357.552 -8243.78 26.0012
Loop time of 191.385 on 4 procs for 10000 steps with 2048 atoms

variable T_new equal 10000*7.49892707212922e-06+0.287745815282508
variable T_total equal 0.3627350860038
Total time: 0.3627350860038

## check if 1 ps has passed ##
jump SELF time_loop

variable dtold equal 7.49892707212922e-06
variable velo equal c_maxv
variable tau equal 1.0/28.1471791200069
variable dt equal 0.001*0.0355275388605178
variable dtratio equal 7.49892707212922e-06/3.55275388605178e-05

variable dt equal 7.49892707212922e-06*1.2

Timestep: 8.99871248655506e-06
timestep 8.99871248655506e-06

## run until atom has traveled 1 A ##
run 10000
Step Time Temp Press PotEng KinEng TotEng c_maxv
90000   0.36273509    1398.8869    91005.596   -8612.9307     370.1392   -8242.7915    28.147179
Averages over the last 6 of 11 rows, steps 95000 to 100000:
Temp Press PotEng KinEng TotEng c_maxv
1484.49 84032.5 -8633.06 392.788 -8240.27 24.7964
Loop time of 173.578 on 4 procs for 10000 steps with 2048 atoms

variable T_new equal 10000*8.99871248655506e-06+0.3627350860038
variable T_total equal 0.452722210869351
Total time: 0.452722210869351

## check if 1 ps has passed ##
jump SELF time_loop

variable dtold equal 8.99871248655506e-06
variable velo equal c_maxv
variable tau equal 1.0/23.1060875795388
variable dt equal 0.001*0.0432786380021139
variable dtratio equal 8.99871248655506e-06/4.32786380021139e-05

variable dt equal 8.99871248655506e-06*1.2

Timestep: 1.07984549838661e-05
timestep 1.07984549838661e-05

## run until atom has traveled 1 A ##
run 10000
Step Time Temp Press PotEng KinEng TotEng c_maxv
100000   0.45272221    1490.6233    82967.862   -8633.9988    394.41225   -8239.5865    23.106088
Averages over the last 6 of 11 rows, steps 105000 to 110000:
Temp Press PotEng KinEng TotEng c_maxv
1424.2 80278.8 -8615.72 376.837 -8238.89 23.3969
Loop time of 174.535 on 4 procs for 10000 steps with 2048 atoms

variable T_new equal 10000*1.07984549838661e-05+0.452722210869351
variable T_total equal 0.560706760708012
Total time: 0.560706760708012

## check if 1 ps has passed ##
jump SELF time_loop

variable dtold equal 1.07984549838661e-05
variable velo equal c_maxv
variable tau equal 1.0/22.3072687486167
variable dt equal 0.001*0.0448284373703083
variable dtratio equal 1.07984549838661e-05/4.48284373703083e-05

variable dt equal 1.07984549838661e-05*1.2

Timestep: 1.29581459806393e-05
timestep 1.29581459806393e-05

## run until atom has traveled 1 A ##
run 10000
Step Time Temp Press PotEng KinEng TotEng c_maxv
110000   0.56070676      1420.28    79487.883   -8613.5165    375.79971   -8237.7168    22.307269
Averages over the last 6 of 11 rows, steps 115000 to 120000:
Temp Press PotEng KinEng TotEng c_maxv
1472.51 76673.6 -8626.52 389.619 -8236.9 23.4489
Loop time of 163.774 on 4 procs for 10000 steps with 2048 atoms

variable T_new equal 10000*1.29581459806393e-05+0.560706760708012
variable T_total equal 0.690288220514405
Total time: 0.690288220514405

## check if 1 ps has passed ##
jump SELF time_loop

variable dtold equal 1.29581459806393e-05
variable velo equal c_maxv
variable tau equal 1.0/24.6176493322202
variable dt equal 0.001*0.0406212626764154
variable dtratio equal 1.29581459806393e-05/4.06212626764154e-05

variable dt equal 1.29581459806393e-05*1.2

Timestep: 1.55497751767672e-05
timestep 1.55497751767672e-05

## run until atom has traveled 1 A ##
run 10000
Step Time Temp Press PotEng KinEng TotEng c_maxv
120000   0.69028822    1535.8665    75505.871   -8642.7629    406.38339   -8236.3795    24.617649
Averages over the last 6 of 11 rows, steps 125000 to 130000:
Temp Press PotEng KinEng TotEng c_maxv
1461.32 81772.3 -8620.53 386.66 -8233.87 22.2972
Loop time of 174.308 on 4 procs for 10000 steps with 2048 atoms

variable T_new equal 10000*1.55497751767672e-05+0.690288220514405
variable T_total equal 0.845785972282077
Total time: 0.845785972282077

## check if 1 ps has passed ##
jump SELF time_loop

variable dtold equal 1.55497751767672e-05
variable velo equal c_maxv
variable tau equal 1.0/22.3183360517929
variable dt equal 0.001*0.0448062076706506
variable dtratio equal 1.55497751767672e-05/4.48062076706506e-05

variable dt equal 1.55497751767672e-05*1.2

Timestep: 1.86597302121206e-05
timestep 1.86597302121206e-05

## run until atom has traveled 1 A ##
run 10000
Step Time Temp Press PotEng KinEng TotEng c_maxv
130000   0.84578597    1445.7232    83057.001   -8614.4402    382.53187   -8231.9084    22.318336
Averages over the last 6 of 11 rows, steps 135000 to 140000:
Temp Press PotEng KinEng TotEng c_maxv
1515.25 79467.1 -8631.72 400.929 -8230.79 21.9414
Loop time of 165.398 on 4 procs for 10000 steps with 2048 atoms

variable T_new equal 10000*1.86597302121206e-05+0.845785972282077
variable T_total equal 1.03238327440328
Total time: 1.03238327440328

## check if 1 ps has passed ##
jump SELF loop_end
run 0
Step Time Temp Press PotEng KinEng TotEng c_maxv
140000    1.0323833    1572.4957    75880.554   -8646.7563    416.07532   -8230.6809    26.521481
Loop time of 7.62774e-05 on 4 procs for 0 steps with 2048 atoms
